Ngspice started...

Note: No compatibility mode selected!


Circuit: * qucs 0.0.24 /home/saul/projects/qucs_s/qucs_analog_elektronik/ie1202_f12_prj/ex1_ce_darlington_ngspice.sch

Doing analysis at TEMP = 27.000000 and TNOM = 27.000000


No. of Data Rows : 100
binary raw file "EX1_CE_DARLINGTON_ngspice_ac.txt"
Reset re-loads circuit * qucs 0.0.24 /home/saul/projects/qucs_s/qucs_analog_elektronik/ie1202_f12_prj/ex1_ce_darlington_ngspice.sch

Circuit: * qucs 0.0.24 /home/saul/projects/qucs_s/qucs_analog_elektronik/ie1202_f12_prj/ex1_ce_darlington_ngspice.sch

Doing analysis at TEMP = 27.000000 and TNOM = 27.000000


Initial Transient Solution
--------------------------

Node                                   Voltage
----                                   -------
_net0                                        0
e                                      1.10467
_net1                                        9
_net2                                        9
_net3                                  1.78998
b                                      1.78998
uin                                          0
_net4                                        9
_net5                                  4.92962
_net7                                        9
_net6                                  4.28385
vout                                    3.4961
vpr5#branch                          0.0699135
v1#branch                           -0.0743116
v2#branch                                    0
vpr4#branch                        0.000327728
vpr1#branch                        2.93977e-05
vpr3#branch                         0.00409137
vpr2#branch                         0.00407038


No. of Data Rows : 209
binary raw file "EX1_CE_DARLINGTON_ngspice_tran.txt"
Reset re-loads circuit * qucs 0.0.24 /home/saul/projects/qucs_s/qucs_analog_elektronik/ie1202_f12_prj/ex1_ce_darlington_ngspice.sch

Circuit: * qucs 0.0.24 /home/saul/projects/qucs_s/qucs_analog_elektronik/ie1202_f12_prj/ex1_ce_darlington_ngspice.sch

ngspice-37 done
