Ngspice started...
Using SPARSE 1.3 as Direct Linear Solver

Note: Compatibility modes selected: hs a


Circuit: * qucs 24.2.1  /foss/designs/qucs_analog_elektronik/ie1202_f4_prj/ex_bandbred_ngspice.sch

Doing analysis at TEMP = 27.000000 and TNOM = 27.000000


No. of Data Rows : 1
ngspice-42 done
