Ngspice started...
warning, can't find model 'ro' from line
    r2 out _net1 ro
warning, can't find model 'r1' from line
    r1 nc _net0 r1
warning, can't find model 'c1' from line
    c1 nc 0 c1

Note: No compatibility mode selected!


Circuit: * qucs 0.0.24 /home/saul/projects/qucs_s/qucs_analog_elektronik/tenta_2020_06_prj/mål1_1_ngspirce.sch

Doing analysis at TEMP = 27.000000 and TNOM = 27.000000


No. of Data Rows : 127
binary raw file "Mål1_1_ngspirce_ac.txt"
Reset re-loads circuit * qucs 0.0.24 /home/saul/projects/qucs_s/qucs_analog_elektronik/tenta_2020_06_prj/mål1_1_ngspirce.sch

Circuit: * qucs 0.0.24 /home/saul/projects/qucs_s/qucs_analog_elektronik/tenta_2020_06_prj/mål1_1_ngspirce.sch

Doing analysis at TEMP = 27.000000 and TNOM = 27.000000


Initial Transient Solution
--------------------------

Node                                   Voltage
----                                   -------
xop1._net0                                   0
vin                                          0
_net0                                        0
vout                                         0
xop1._net1                                   0
xop1.nc                                      0
b.xop1.b1#branch                             0
e.xop1.esrc1#branch                          0
v1#branch                                    0


No. of Data Rows : 63
binary raw file "Mål1_1_ngspirce_tran.txt"
Reset re-loads circuit * qucs 0.0.24 /home/saul/projects/qucs_s/qucs_analog_elektronik/tenta_2020_06_prj/mål1_1_ngspirce.sch

Circuit: * qucs 0.0.24 /home/saul/projects/qucs_s/qucs_analog_elektronik/tenta_2020_06_prj/mål1_1_ngspirce.sch

ngspice-37 done
